data/mpower/instabil.m
% This file was generated by Sparlectra exportMatPower.jl
function mpc = instabil
%% MATPOWER Case Format : Version 2
mpc.version = '2';
%%-----  Power Flow Data  -----%%
%% system MVA base
mpc.baseMVA = 100.0;
%% bus data
mpc.bus = [
%bus	type	Pd	Qd	Gs	Bs	area	Vm	Va	baseKV	zone	Vmax	Vmin
1	3	0.0	0.0	0.0	0.0	1	1.02	0.0	220.0	1	1.1	0.9; %Bus: Bus_1_220* (slack) (ID: #Bus_1_220*#)
2	1	0.0	0.0	0.0	0.0	1	1.0	0.0	220.0	1	1.1	0.9; %Bus: Bus_2_220 (ID: #Bus_2_220#)
3	1	46.0	200.0	0.0	150.0	1	1.0	0.0	22.0	1	1.1	0.9; %Bus: Bus_3_22 (ID: #Bus_3_22#)
];
%% generator data
mpc.gen = [
%bus	Pg	Qg	Qmax	Qmin	Vg	mBase	status	Pmax	Pmin	Pc1	Pc2	Qc1min	Qc1max	Qc2min	Qc2max	ramp_agc	ramp_10	ramp_30	ramp_q	apf
1	0	0	100.0	-100.0	1.02	100.0	1	100.0	-100.0	0.0	0.0	0.0	0.0	0.0	0.0	0.0	0.0	0.0	0.0	0.0; %Gen: Generator_Gen_220)
];
%% branch data
mpc.branch = [
%fbus	tbus	r	x	b	rateA	rateB	rateC	ratio	angle	status	angmin	angmax
1	2	0.00674587	0.0411157	2.9e-7	0	0	0	0.0	0.0	1	-360	360; %Branch: B_ACL_220_1_2 (ID: #B_ACL_220_1_2#1)
2	3	0.0028	0.12996984	0.0	1000.0	0	0	1.0	0.0	1	-360	360; %Branch: B_2WT_220_2_3 (ID: #B_2WT_220_2_3#2)
];
